5
frame=0
H 0.00 0.00 0.00
H 1.00 0.00 0.00
O 0.00 1.00 0.00
O 0.00 0.00 1.00
H 1.00 1.00 1.00
5
frame=1
H 0.01 0.00 0.00
H 1.01 0.00 0.00
O 0.00 1.01 0.00
O 0.00 0.00 1.01
H 1.01 1.01 1.01
5
frame=2
H 0.02 0.00 0.00
H 1.02 0.00 0.00
O 0.00 1.02 0.00
O 0.00 0.00 1.02
H 1.02 1.02 1.02
5
frame=3
H 0.03 0.00 0.00
H 1.03 0.00 0.00
O 0.00 1.03 0.00
O 0.00 0.00 1.03
H 1.03 1.03 1.03
5
frame=4
H 0.04 0.00 0.00
H 1.04 0.00 0.00
O 0.00 1.04 0.00
O 0.00 0.00 1.04
H 1.04 1.04 1.04
5
frame=5
H 0.05 0.00 0.00
H 1.05 0.00 0.00
O 0.00 1.05 0.00
O 0.00 0.00 1.05
H 1.05 1.05 1.05
5
frame=6
H 0.06 0.00 0.00
H 1.06 0.00 0.00
O 0.00 1.06 0.00
O 0.00 0.00 1.06
H 1.06 1.06 1.06
5
frame=7
H 0.07 0.00 0.00
H 1.07 0.00 0.00
O 0.00 1.07 0.00
O 0.00 0.00 1.07
H 1.07 1.07 1.07
5
frame=8
H 0.08 0.00 0.00
H 1.08 0.00 0.00
O 0.00 1.08 0.00
O 0.00 0.00 1.08
H 1.08 1.08 1.08
5
frame=9
H 0.09 0.00 0.00
H 1.09 0.00 0.00
O 0.00 1.09 0.00
O 0.00 0.00 1.09
H 1.09 1.09 1.09
5
frame=10
H 0.10 0.00 0.00
H 1.10 0.00 0.00
O 0.00 1.10 0.00
O 0.00 0.00 1.10
H 1.10 1.10 1.10
